VERSION=1.1.0
DATE=2018-03-28
PROJECT=MT3DANIE_MPI
OUTDIR=.
ARCHIVE=$(PROJECT)-$(DATE)
