VERSION=1.1.0
DATE=2018-04-16
PROJECT=MT3DANI
OUTDIR=.
ARCHIVE=$(PROJECT)-$(DATE)
